Circuit: * D:\Documents\Programming\Repositories\HBridgeControl\simulation\circuit.asc

Direct Newton iteration for .op point succeeded.

Date: Mon Oct 01 19:18:53 2018
Total elapsed time: 0.159 seconds.

tnom = 27
temp = 27
method = modified trap
totiter = 22575
traniter = 22553
tranpoints = 8075
accept = 6225
rejected = 1850
matrix size = 9
fillins = 0
solver = Normal
Matrix Compiler1:      22 opcodes  0.2/[0.1]/0.1
Matrix Compiler2: off  [0.1]/0.1/0.2

